Circuit: * Z:\home\joshua\University\ECEN405_ClassDAmplifier\spice\CombinedInput_CapBias_ActiveLPF.asc

Direct Newton iteration failed to find .op point.  (Use ".option noopiter" to skip.)
Starting Gmin stepping
Gmin = 10
Gmin = 1.07374
Gmin = 0.115292
Gmin = 0.0123794
Gmin = 0.00132923
Gmin = 0.000142725
Gmin = 1.5325e-005
vernier = 0.5
vernier = 0.25
vernier = 0.125
vernier = 0.0625
Gmin = 6.18053e-006
vernier = 0.0833333
Gmin = 5.1329e-006
vernier = 0.111111
vernier = 0.148148
Gmin = 3.76522e-006
vernier = 0.197531
vernier = 0.263374
Gmin = 2.30787e-006
vernier = 0.351165
Gmin = 1.07936e-006
vernier = 0.46822
vernier = 0.624294
Gmin = 3.11011e-007
vernier = 0.832392
vernier = 1
Gmin = 4.7904e-008
Gmin = 5.14365e-009
Gmin = 5.52295e-010
Gmin = 5.93023e-011
Gmin = 6.36753e-012
Gmin = 6.83709e-013
Gmin = 0
Gmin stepping succeeded in finding the operating point.


Date: Sun Aug 08 14:55:21 2021
Total elapsed time: 0.095 seconds.

tnom = 27
temp = 27
method = trap
totiter = 958
traniter = 0
tranpoints = 0
accept = 0
rejected = 0
matrix size = 55
fillins = 75
solver = Normal
Matrix Compiler1:     353 opcodes
Matrix Compiler2: off  [0.6]/1.0/1.0

