Circuit: * C:\Users\smtag\OneDrive\Documents\GitHub\ECEN405_ClassDAmplifier\spice\NewCombinedInput_CapacitorBias.asc

Direct Newton iteration failed to find .op point.  (Use ".option noopiter" to skip.)
Starting Gmin stepping
Gmin = 10
Gmin = 1.07374
Gmin = 0.115292
Gmin = 0.0123794
Gmin = 0.00132923
Gmin = 0.000142725
Gmin = 1.5325e-005
vernier = 0.5
vernier = 0.25
vernier = 0.125
Gmin = 4.86951e-006
vernier = 0.166667
Gmin = 3.37021e-006
vernier = 0.222222
vernier = 0.296296
Gmin = 1.83077e-006
vernier = 0.395061
vernier = 0.526748
Gmin = 7.04178e-007
vernier = 0.702331
Gmin = 1.62651e-007
vernier = 0.936441
vernier = 1
Gmin = 1.88579e-008
Gmin = 2.02486e-009
Gmin = 2.17417e-010
Gmin = 2.3345e-011
Gmin = 2.50665e-012
Gmin = 2.69149e-013
Gmin = 0
Gmin stepping succeeded in finding the operating point.


Date: Wed Aug 04 18:14:03 2021
Total elapsed time: 57.312 seconds.

tnom = 27
temp = 27
method = modified trap
totiter = 2079085
traniter = 2078242
tranpoints = 1034571
accept = 1015257
rejected = 19314
matrix size = 30
fillins = 25
solver = Normal
Thread vector: 11.6/8.1[3] 4.7/1.5[3] 2.3/1.5[3] 0.2/0.4[1]  2592/500
Matrix Compiler1:     149 opcodes  0.7/[0.3]/0.4
Matrix Compiler2: off  [0.6]/1.0/0.6

