Circuit: * Z:\home\joshua\University\ECEN405_ClassDAmplifier\spice\outputFilter.asc


Date: Fri Jul 30 22:45:04 2021
Total elapsed time: 0.011 seconds.

tnom = 27
temp = 27
method = trap
totiter = 0
traniter = 0
tranpoints = 0
accept = 0
rejected = 0
matrix size = 6
fillins = 1
solver = Normal

