Circuit: * Z:\home\joshua\University\ECEN405_ClassDAmplifier\spice\outputFilter.asc


Date: Tue Aug 03 21:40:34 2021
Total elapsed time: 0.015 seconds.

tnom = 27
temp = 27
method = trap
totiter = 0
traniter = 0
tranpoints = 0
accept = 0
rejected = 0
matrix size = 4
fillins = 1
solver = Normal

