Circuit: * Z:\home\joshua\University\ECEN405_ClassDAmplifier\spice\Triangle Wave Gen.asc

Direct Newton iteration failed to find .op point.  (Use ".option noopiter" to skip.)
Starting Gmin stepping
Gmin = 10
Gmin = 1.07374
Gmin = 0.115292
Gmin = 0.0123794
Gmin = 0.00132923
Gmin = 0.000142725
Gmin = 1.5325e-005
Gmin = 1.6455e-006
Gmin = 1.76685e-007
Gmin = 1.89714e-008
Gmin = 2.03704e-009
Gmin = 2.18725e-010
Gmin = 2.34854e-011
Gmin = 2.52173e-012
Gmin = 2.70769e-013
Gmin = 0
Gmin stepping succeeded in finding the operating point.


Date: Wed Jul 28 13:52:37 2021
Total elapsed time: 2.958 seconds.

tnom = 27
temp = 27
method = modified trap
totiter = 205396
traniter = 205008
tranpoints = 101937
accept = 100823
rejected = 1114
matrix size = 17
fillins = 24
solver = Normal
Matrix Compiler1: 2.03 KB object code size  0.6/0.3/[0.2]
Matrix Compiler2: off  [0.3]/0.4/0.4

